/*--------------------------------*- C++ -*----------------------------------*\
| =========                 |                                                 |
| \\      /  F ield         | OpenFOAM: The Open Source CFD Toolbox           |
|  \\    /   O peration     | Version:  2212                                  |
|   \\  /    A nd           | Website:  www.openfoam.com                      |
|    \\/     M anipulation  |                                                 |
\*---------------------------------------------------------------------------*/
FoamFile
{
    version     2.0;
    format      ascii;
    arch        "LSB;label=32;scalar=64";
    class       polyBoundaryMesh;
    location    "constant/polyMesh";
    object      boundary;
}
// * * * * * * * * * * * * * * * * * * * * * * * * * * * * * * * * * * * * * //

9
(
    inlet
    {
        type            patch;
        nFaces          0;
        startFace       1786;
    }
    ami1
    {
        type            cyclicAMI;
        inGroups        1(cyclicAMI);
        nFaces          0;
        startFace       1786;
        matchTolerance  0.0001;
        transform       noOrdering;
        neighbourPatch  ami2;
        AMIMethod       faceAreaWeightAMI;
        restartUncoveredSourceFace 1;
    }
    walls
    {
        type            wall;
        inGroups        1(wall);
        nFaces          259;
        startFace       1786;
    }
    ami2
    {
        type            cyclicAMI;
        inGroups        1(cyclicAMI);
        nFaces          0;
        startFace       2045;
        matchTolerance  0.0001;
        transform       noOrdering;
        neighbourPatch  ami1;
        AMIMethod       faceAreaWeightAMI;
        restartUncoveredSourceFace 1;
    }
    outlet
    {
        type            patch;
        nFaces          0;
        startFace       2045;
    }
    procBoundary9to0
    {
        type            processor;
        inGroups        1(processor);
        nFaces          40;
        startFace       2045;
        matchTolerance  0.0001;
        transform       unknown;
        myProcNo        9;
        neighbProcNo    0;
    }
    procBoundary9to1
    {
        type            processor;
        inGroups        1(processor);
        nFaces          30;
        startFace       2085;
        matchTolerance  0.0001;
        transform       unknown;
        myProcNo        9;
        neighbProcNo    1;
    }
    procBoundary9to7
    {
        type            processor;
        inGroups        1(processor);
        nFaces          59;
        startFace       2115;
        matchTolerance  0.0001;
        transform       unknown;
        myProcNo        9;
        neighbProcNo    7;
    }
    procBoundary9to8
    {
        type            processor;
        inGroups        1(processor);
        nFaces          132;
        startFace       2174;
        matchTolerance  0.0001;
        transform       unknown;
        myProcNo        9;
        neighbProcNo    8;
    }
)

// ************************************************************************* //
