/*--------------------------------*- C++ -*----------------------------------*\
| =========                 |                                                 |
| \\      /  F ield         | OpenFOAM: The Open Source CFD Toolbox           |
|  \\    /   O peration     | Version:  2212                                  |
|   \\  /    A nd           | Website:  www.openfoam.com                      |
|    \\/     M anipulation  |                                                 |
\*---------------------------------------------------------------------------*/
FoamFile
{
    version     2.0;
    format      ascii;
    arch        "LSB;label=32;scalar=64";
    class       polyBoundaryMesh;
    location    "constant/polyMesh";
    object      boundary;
}
// * * * * * * * * * * * * * * * * * * * * * * * * * * * * * * * * * * * * * //

8
(
    inlet
    {
        type            patch;
        nFaces          0;
        startFace       1826;
    }
    ami1
    {
        type            cyclicAMI;
        inGroups        1(cyclicAMI);
        nFaces          0;
        startFace       1826;
        matchTolerance  0.0001;
        transform       noOrdering;
        neighbourPatch  ami2;
        AMIMethod       faceAreaWeightAMI;
        restartUncoveredSourceFace 1;
    }
    walls
    {
        type            wall;
        inGroups        1(wall);
        nFaces          248;
        startFace       1826;
    }
    ami2
    {
        type            cyclicAMI;
        inGroups        1(cyclicAMI);
        nFaces          0;
        startFace       2074;
        matchTolerance  0.0001;
        transform       noOrdering;
        neighbourPatch  ami1;
        AMIMethod       faceAreaWeightAMI;
        restartUncoveredSourceFace 1;
    }
    outlet
    {
        type            patch;
        nFaces          0;
        startFace       2074;
    }
    procBoundary7to5
    {
        type            processor;
        inGroups        1(processor);
        nFaces          131;
        startFace       2074;
        matchTolerance  0.0001;
        transform       unknown;
        myProcNo        7;
        neighbProcNo    5;
    }
    procBoundary7to8
    {
        type            processor;
        inGroups        1(processor);
        nFaces          68;
        startFace       2205;
        matchTolerance  0.0001;
        transform       unknown;
        myProcNo        7;
        neighbProcNo    8;
    }
    procBoundary7to9
    {
        type            processor;
        inGroups        1(processor);
        nFaces          59;
        startFace       2273;
        matchTolerance  0.0001;
        transform       unknown;
        myProcNo        7;
        neighbProcNo    9;
    }
)

// ************************************************************************* //
