/*--------------------------------*- C++ -*----------------------------------*\
| =========                 |                                                 |
| \\      /  F ield         | OpenFOAM: The Open Source CFD Toolbox           |
|  \\    /   O peration     | Version:  2212                                  |
|   \\  /    A nd           | Website:  www.openfoam.com                      |
|    \\/     M anipulation  |                                                 |
\*---------------------------------------------------------------------------*/
FoamFile
{
    version     2.0;
    format      ascii;
    arch        "LSB;label=32;scalar=64";
    class       polyBoundaryMesh;
    location    "constant/polyMesh";
    object      boundary;
}
// * * * * * * * * * * * * * * * * * * * * * * * * * * * * * * * * * * * * * //

6
(
    inlet
    {
        type            patch;
        nFaces          100;
        startFace       1800;
    }
    ami1
    {
        type            cyclicAMI;
        inGroups        1(cyclicAMI);
        nFaces          0;
        startFace       1900;
        matchTolerance  0.0001;
        transform       noOrdering;
        neighbourPatch  ami2;
        AMIMethod       faceAreaWeightAMI;
        restartUncoveredSourceFace 1;
    }
    walls
    {
        type            wall;
        inGroups        1(wall);
        nFaces          271;
        startFace       1900;
    }
    ami2
    {
        type            cyclicAMI;
        inGroups        1(cyclicAMI);
        nFaces          0;
        startFace       2171;
        matchTolerance  0.0001;
        transform       noOrdering;
        neighbourPatch  ami1;
        AMIMethod       faceAreaWeightAMI;
        restartUncoveredSourceFace 1;
    }
    outlet
    {
        type            patch;
        nFaces          0;
        startFace       2171;
    }
    procBoundary4to3
    {
        type            processor;
        inGroups        1(processor);
        nFaces          109;
        startFace       2171;
        matchTolerance  0.0001;
        transform       unknown;
        myProcNo        4;
        neighbProcNo    3;
    }
)

// ************************************************************************* //
